Circuit: * C:\Users\theda\Documents\IDE\IdeLab\Lab8\Draft1.asc

Limiting rise time of source v2 to 0.25
Limiting fall time of source v2 to 0.25
Limiting rise time of source v1 to 0.05
Limiting fall time of source v1 to 0.05
WARNING: Less than two connections to node VOUT.  This node is used by Q1.
.OP point found by inspection.

Date: Mon Nov 22 19:27:41 2021
Total elapsed time: 0.108 seconds.

tnom = 27
temp = 27
method = modified trap
totiter = 3000
traniter = 3000
tranpoints = 1346
accept = 1275
rejected = 71
matrix size = 5
fillins = 0
solver = Normal
Matrix Compiler1: 204 bytes object code size  0.1/0.1/[0.1]
Matrix Compiler2: 311 bytes object code size  0.1/0.1/[0.1]

