Circuit: * C:\Users\johnd\Desktop\IDE\IdeLab\Lab8\Prelab.asc

Direct Newton iteration for .op point succeeded.

Date: Fri Oct 29 08:32:29 2021
Total elapsed time: 0.127 seconds.

tnom = 27
temp = 27
method = trap
totiter = 3
traniter = 0
tranpoints = 0
accept = 0
rejected = 0
matrix size = 9
fillins = 4
solver = Normal
Matrix Compiler1:      49 opcodes
Matrix Compiler2: 817 bytes object code size
