Circuit: * C:\Users\johnd\Desktop\IDE\IdeLab\Lab7\Biquad.asc

Direct Newton iteration for .op point succeeded.

Date: Fri Oct 29 11:14:06 2021
Total elapsed time: 0.166 seconds.

tnom = 27
temp = 27
method = trap
totiter = 3
traniter = 0
tranpoints = 0
accept = 0
rejected = 0
matrix size = 19
fillins = 18
solver = Normal
Matrix Compiler1:      96 opcodes
Matrix Compiler2: 2.07 KB object code size
