Circuit: * C:\Users\aubre\Desktop\ide\IdeLab\Lab7\Biquad.asc

Direct Newton iteration for .op point succeeded.

Date: Fri Oct 29 16:44:42 2021
Total elapsed time: 0.052 seconds.

tnom = 27
temp = 27
method = trap
totiter = 3
traniter = 0
tranpoints = 0
accept = 0
rejected = 0
matrix size = 67
fillins = 65
solver = Normal
Matrix Compiler1:     268 opcodes
Matrix Compiler2: 6.83 KB object code size
