Circuit: * C:\Users\johnd\Desktop\IDE\IdeLab\Lab7\ButterWorth.asc

Direct Newton iteration for .op point succeeded.

Date: Fri Oct 29 10:32:18 2021
Total elapsed time: 0.160 seconds.

tnom = 27
temp = 27
method = trap
totiter = 4
traniter = 0
tranpoints = 0
accept = 0
rejected = 0
matrix size = 11
fillins = 3
solver = Normal
Matrix Compiler1:      33 opcodes
Matrix Compiler2: 1003 bytes object code size
