Circuit: * C:\Users\johnd\Desktop\IDE\IdeLab\Lab7\Draft1.asc


Date: Fri Oct 22 08:38:35 2021
Total elapsed time: 0.123 seconds.

tnom = 27
temp = 27
method = trap
totiter = 0
traniter = 0
tranpoints = 0
accept = 0
rejected = 0
matrix size = 3
fillins = 0
solver = Normal

