Circuit: * C:\Users\johnd\Desktop\IDE\IdeLab\Lab7\Draft1.asc

R1: both pins shorted together -- ignoring.
.step c=1e-010
.step c=1e-009
.step c=1e-008
.step c=1e-007

Date: Fri Oct 22 10:05:25 2021
Total elapsed time: 0.283 seconds.

tnom = 27
temp = 27
method = trap
totiter = 0
traniter = 0
tranpoints = 0
accept = 0
rejected = 0
matrix size = 4
fillins = 0
solver = Normal

