Circuit: * C:\Users\aubre\Desktop\ide\IdeLab\Lab7\Draft2.asc

WARNING: Node U1:RAILN is floating.

Direct Newton iteration for .op point succeeded.

Date: Thu Oct 28 03:00:07 2021
Total elapsed time: 0.063 seconds.

tnom = 27
temp = 27
method = trap
totiter = 3
traniter = 0
tranpoints = 0
accept = 0
rejected = 0
matrix size = 25
fillins = 27
solver = Normal
Matrix Compiler1:     115 opcodes
Matrix Compiler2: 2.60 KB object code size
