Circuit: * C:\Users\aubre\Desktop\ide\IdeLab\Lab7\Draft2.asc

R4_1: both pins shorted together -- ignoring.
WARNING: Node U1:RAILN is floating.
WARNING: Node U2:RAILN is floating.
WARNING: Node U3:RAILN is floating.

Direct Newton iteration for .op point succeeded.

Date: Thu Oct 28 21:17:55 2021
Total elapsed time: 0.137 seconds.

tnom = 27
temp = 27
method = trap
totiter = 3
traniter = 0
tranpoints = 0
accept = 0
rejected = 0
matrix size = 63
fillins = 84
solver = Normal
Matrix Compiler1:     298 opcodes
Matrix Compiler2: 6.84 KB object code size
