Circuit: * C:\Users\aubre\Desktop\ide\IdeLab\Lab7\Draft2.asc

Direct Newton iteration for .op point succeeded.

Date: Sat Nov 13 19:49:17 2021
Total elapsed time: 0.020 seconds.

tnom = 27
temp = 27
method = trap
totiter = 3
traniter = 0
tranpoints = 0
accept = 0
rejected = 0
matrix size = 2
fillins = 0
solver = Normal
Matrix Compiler1: 36 bytes object code size
Matrix Compiler2: 96 bytes object code size
