Circuit: * C:\Users\johnd\Desktop\IDE\IdeLab\Lab7\Hw5_3.asc


Date: Thu Oct 28 13:04:31 2021
Total elapsed time: 0.126 seconds.

tnom = 27
temp = 27
method = trap
totiter = 0
traniter = 0
tranpoints = 0
accept = 0
rejected = 0
matrix size = 4
fillins = 0
solver = Normal

