Circuit: * C:\Users\aubre\Desktop\ide\IdeLab\Lab7\SallenKey2ndOrder.asc

Direct Newton iteration for .op point succeeded.

Date: Fri Oct 29 18:08:29 2021
Total elapsed time: 0.069 seconds.

tnom = 27
temp = 27
method = trap
totiter = 3
traniter = 0
tranpoints = 0
accept = 0
rejected = 0
matrix size = 27
fillins = 23
solver = Normal
Matrix Compiler1:     106 opcodes
Matrix Compiler2: 2.64 KB object code size
