Circuit: * C:\Users\aubre\Desktop\ide\IdeLab\Lab7\SecondOrder.asc

.step c=1e-010
.step c=1e-009
.step c=1e-008
.step c=1e-007

Date: Thu Oct 28 01:50:06 2021
Total elapsed time: 0.056 seconds.

tnom = 27
temp = 27
method = trap
totiter = 0
traniter = 0
tranpoints = 0
accept = 0
rejected = 0
matrix size = 5
fillins = 1
solver = Normal

